AVX101118_0
  -OEChem-03191316103D

 65 68  0     1  0  0  0  0  0999 V2000
    9.0570   -1.5984   -1.5950 C   0  0  0  0  0  0  0  0  0  0  0  0
    8.9174   -0.6778   -0.5565 C   0  0  0  0  0  0  0  0  0  0  0  0
    7.9278   -2.0752   -2.2609 C   0  0  0  0  0  0  0  0  0  0  0  0
    7.6486   -0.2339   -0.1839 C   0  0  0  0  0  0  0  0  0  0  0  0
    1.7297   -0.6483   -0.2263 C   0  0  0  0  0  0  0  0  0  0  0  0
    0.7628   -1.6205   -0.4843 C   0  0  0  0  0  0  0  0  0  0  0  0
    6.6591   -1.6313   -1.8883 C   0  0  0  0  0  0  0  0  0  0  0  0
    1.8023   -0.0866   -2.5769 C   0  0  0  0  0  0  0  0  0  0  0  0
    6.5194   -0.7106   -0.8497 C   0  0  0  0  0  0  0  0  0  0  0  0
    2.2448    0.1209   -1.2701 C   0  0  0  0  0  0  0  0  0  0  0  0
    0.3100   -1.8196   -1.7889 C   0  0  0  0  0  0  0  0  0  0  0  0
    0.8454   -1.0678   -2.8378 C   0  0  0  0  0  0  0  0  0  0  0  0
    5.4737   -2.1561   -2.6140 C   0  0  0  0  0  0  0  0  0  0  0  0
    2.3524    0.7133   -3.6671 C   0  0  0  0  0  0  0  0  0  0  0  0
    4.5898   -5.7275   -7.5474 C   0  0  0  0  0  0  0  0  0  0  0  0
    3.5754   -5.7869   -6.4095 C   0  0  0  0  0  0  0  0  0  0  0  0
    5.8877   -5.0574   -7.1074 C   0  0  0  0  0  0  0  0  0  0  0  0
    3.3177   -4.4056   -5.8118 C   0  0  0  0  0  0  0  0  0  0  0  0
    5.6339   -3.6749   -6.5106 C   0  0  0  0  0  0  0  0  0  0  0  0
   -1.2817   -2.6554   -3.2566 C   0  0  0  0  0  0  0  0  0  0  0  0
   -0.2353   -2.4702   -4.3382 C   0  0  0  0  0  0  0  0  0  0  0  0
    4.6204   -3.7319   -5.3597 C   0  0  0  0  0  0  0  0  0  0  0  0
    5.4989    1.9166   -1.4811 C   0  0  0  0  0  0  0  0  0  0  0  0
    5.1729   -0.2190   -0.4298 C   0  0  0  0  0  0  0  0  0  0  0  0
    3.2788    1.1629   -0.9554 C   0  0  0  0  0  0  0  0  0  0  0  0
    4.3429   -2.3319   -4.8154 C   0  0  0  0  0  0  0  0  0  0  0  0
    5.4244   -1.9132   -3.9891 N   0  0  0  0  0  0  0  0  0  0  0  0
    4.6280    0.7383   -1.3574 N   0  0  1  0  0  0  0  0  0  0  0  0
    4.5996   -2.7482   -1.9864 O   0  0  0  0  0  0  0  0  0  0  0  0
    3.5413    0.7543   -3.9885 O   0  0  0  0  0  0  0  0  0  0  0  0
   -0.6551   -2.7744   -1.9764 O   0  0  0  0  0  0  0  0  0  0  0  0
    0.4660   -1.2390   -4.1435 O   0  0  0  0  0  0  0  0  0  0  0  0
    1.3955    1.4297   -4.3140 O   0  0  0  0  0  0  0  0  0  0  0  0
   10.0448   -1.9443   -1.8857 H   0  0  0  0  0  0  0  0  0  0  0  0
    9.7970   -0.3071   -0.0382 H   0  0  0  0  0  0  0  0  0  0  0  0
    8.0498   -2.7933   -3.0678 H   0  0  0  0  0  0  0  0  0  0  0  0
    7.5510    0.4839    0.6263 H   0  0  0  0  0  0  0  0  0  0  0  0
    2.0730   -0.4953    0.7936 H   0  0  0  0  0  0  0  0  0  0  0  0
    0.3615   -2.2097    0.3356 H   0  0  0  0  0  0  0  0  0  0  0  0
    4.8014   -6.7412   -7.9060 H   0  0  0  0  0  0  0  0  0  0  0  0
    4.1602   -5.1719   -8.3900 H   0  0  0  0  0  0  0  0  0  0  0  0
    2.6342   -6.2111   -6.7776 H   0  0  0  0  0  0  0  0  0  0  0  0
    3.9442   -6.4603   -5.6260 H   0  0  0  0  0  0  0  0  0  0  0  0
    6.3911   -5.6884   -6.3646 H   0  0  0  0  0  0  0  0  0  0  0  0
    6.5656   -4.9706   -7.9641 H   0  0  0  0  0  0  0  0  0  0  0  0
    2.8127   -3.7790   -6.5581 H   0  0  0  0  0  0  0  0  0  0  0  0
    2.6313   -4.5015   -4.9619 H   0  0  0  0  0  0  0  0  0  0  0  0
    6.5822   -3.2552   -6.1540 H   0  0  0  0  0  0  0  0  0  0  0  0
    5.2669   -3.0046   -7.2986 H   0  0  0  0  0  0  0  0  0  0  0  0
   -1.9847   -1.8140   -3.2254 H   0  0  0  0  0  0  0  0  0  0  0  0
   -1.8521   -3.5724   -3.4338 H   0  0  0  0  0  0  0  0  0  0  0  0
    0.4930   -3.2905   -4.3399 H   0  0  0  0  0  0  0  0  0  0  0  0
   -0.7095   -2.4311   -5.3238 H   0  0  0  0  0  0  0  0  0  0  0  0
    5.0544   -4.3298   -4.5471 H   0  0  0  0  0  0  0  0  0  0  0  0
    5.0679    2.6297   -2.1887 H   0  0  0  0  0  0  0  0  0  0  0  0
    6.4882    1.6195   -1.8395 H   0  0  0  0  0  0  0  0  0  0  0  0
    5.6106    2.4076   -0.5107 H   0  0  0  0  0  0  0  0  0  0  0  0
    4.4577   -1.0487   -0.3510 H   0  0  0  0  0  0  0  0  0  0  0  0
    5.2119    0.2631    0.5558 H   0  0  0  0  0  0  0  0  0  0  0  0
    3.0520    2.1009   -1.4738 H   0  0  0  0  0  0  0  0  0  0  0  0
    3.3024    1.3817    0.1173 H   0  0  0  0  0  0  0  0  0  0  0  0
    3.4339   -2.3615   -4.2295 H   0  0  0  0  0  0  0  0  0  0  0  0
    4.2394   -1.6463   -5.6454 H   0  0  0  0  0  0  0  0  0  0  0  0
    6.1703   -1.3553   -4.4161 H   0  0  0  0  0  0  0  0  0  0  0  0
    1.7552    1.9702   -5.0494 H   0  0  0  0  0  0  0  0  0  0  0  0
  1  2  2  0  0  0  0
  1  3  1  0  0  0  0
  2  4  1  0  0  0  0
  3  7  2  0  0  0  0
  4  9  2  0  0  0  0
  5  6  1  0  0  0  0
  5 10  2  0  0  0  0
  6 11  2  0  0  0  0
  7  9  1  0  0  0  0
  7 13  1  0  0  0  0
  8 10  1  0  0  0  0
  8 12  2  0  0  0  0
  8 14  1  0  0  0  0
  9 24  1  0  0  0  0
 10 25  1  0  0  0  0
 11 12  1  0  0  0  0
 11 31  1  0  0  0  0
 12 32  1  0  0  0  0
 13 27  1  0  0  0  0
 13 29  2  0  0  0  0
 14 30  2  0  0  0  0
 14 33  1  0  0  0  0
 15 16  1  0  0  0  0
 15 17  1  0  0  0  0
 16 18  1  0  0  0  0
 17 19  1  0  0  0  0
 18 22  1  0  0  0  0
 19 22  1  0  0  0  0
 20 21  1  0  0  0  0
 20 31  1  0  0  0  0
 21 32  1  0  0  0  0
 22 26  1  0  0  0  0
 23 28  1  0  0  0  0
 24 28  1  0  0  0  0
 25 28  1  0  0  0  0
 26 27  1  0  0  0  0
  1 34  1  0  0  0  0
  2 35  1  0  0  0  0
  3 36  1  0  0  0  0
  4 37  1  0  0  0  0
  5 38  1  0  0  0  0
  6 39  1  0  0  0  0
 15 40  1  0  0  0  0
 15 41  1  0  0  0  0
 16 42  1  0  0  0  0
 16 43  1  0  0  0  0
 17 44  1  0  0  0  0
 17 45  1  0  0  0  0
 18 46  1  0  0  0  0
 18 47  1  0  0  0  0
 19 48  1  0  0  0  0
 19 49  1  0  0  0  0
 20 50  1  0  0  0  0
 20 51  1  0  0  0  0
 21 52  1  0  0  0  0
 21 53  1  0  0  0  0
 22 54  1  0  0  0  0
 23 55  1  0  0  0  0
 23 56  1  0  0  0  0
 23 57  1  0  0  0  0
 24 58  1  0  0  0  0
 24 59  1  0  0  0  0
 25 60  1  0  0  0  0
 25 61  1  0  0  0  0
 26 62  1  0  0  0  0
 26 63  1  0  0  0  0
 27 64  1  0  0  0  0
 33 65  1  0  0  0  0
M  END
$$$$
