AVX101122_0
  -OEChem-03191316103D

 61 63  0     1  0  0  0  0  0999 V2000
    2.7419    1.7219    5.9787 C   0  0  0  0  0  0  0  0  0  0  0  0
    2.1550    2.6597    5.1292 C   0  0  0  0  0  0  0  0  0  0  0  0
    5.6527    2.2020   -2.2812 C   0  0  0  0  0  0  0  0  0  0  0  0
    3.0104    0.4336    5.5161 C   0  0  0  0  0  0  0  0  0  0  0  0
    1.8365    2.3093    3.8172 C   0  0  0  0  0  0  0  0  0  0  0  0
    4.5104    2.2092   -1.4807 C   0  0  0  0  0  0  0  0  0  0  0  0
    5.3349   -2.5682    0.9368 C   0  0  0  0  0  0  0  0  0  0  0  0
    7.1194   -3.0986    2.4767 C   0  0  0  0  0  0  0  0  0  0  0  0
    6.8998    1.9387   -1.7146 C   0  0  0  0  0  0  0  0  0  0  0  0
    6.2597   -2.4766   -0.1033 C   0  0  0  0  0  0  0  0  0  0  0  0
    8.0442   -3.0072    1.4366 C   0  0  0  0  0  0  0  0  0  0  0  0
    2.6919    0.0832    4.2041 C   0  0  0  0  0  0  0  0  0  0  0  0
    5.8625    1.6899    0.4531 C   0  0  0  0  0  0  0  0  0  0  0  0
    5.7647   -2.8791    2.2269 C   0  0  0  0  0  0  0  0  0  0  0  0
    2.1050    1.0210    3.3546 C   0  0  0  0  0  0  0  0  0  0  0  0
    4.6153    1.9531   -0.1135 C   0  0  0  0  0  0  0  0  0  0  0  0
    7.6143   -2.6962    0.1465 C   0  0  0  0  0  0  0  0  0  0  0  0
    7.0047    1.6826   -0.3475 C   0  0  0  0  0  0  0  0  0  0  0  0
    2.9824   -1.2690    3.7470 C   0  0  0  0  0  0  0  0  0  0  0  0
    5.9785    1.4236    1.8827 C   0  0  0  0  0  0  0  0  0  0  0  0
    2.6498   -0.1618   -0.1287 C   0  0  0  0  0  0  0  0  0  0  0  0
    8.0081   -2.2877   -2.1630 C   0  0  0  0  0  0  0  0  0  0  0  0
    9.3429    1.4435   -0.7102 C   0  0  0  0  0  0  0  0  0  0  0  0
    4.7694   -2.9783    3.3465 C   0  0  0  0  0  0  0  0  0  0  0  0
    1.7513    0.6707    1.9381 C   0  0  0  0  0  0  0  0  0  0  0  0
    3.3683    1.9670    0.7224 C   0  0  0  0  0  0  0  0  0  0  0  0
    4.3196   -1.6774    3.7871 N   0  0  0  0  0  0  0  0  0  0  0  0
    2.9318    0.6168    1.0767 N   0  0  2  0  0  0  0  0  0  0  0  0
    2.0702   -2.0001    3.3257 O   0  0  0  0  0  0  0  0  0  0  0  0
    5.6493    2.2017    2.7805 O   0  0  0  0  0  0  0  0  0  0  0  0
    6.5003    0.1943    2.1379 O   0  0  0  0  0  0  0  0  0  0  0  0
    8.5164   -2.6081   -0.8689 O   0  0  0  0  0  0  0  0  0  0  0  0
    8.2335    1.4297    0.1855 O   0  0  0  0  0  0  0  0  0  0  0  0
    2.9903    1.9944    7.0005 H   0  0  0  0  0  0  0  0  0  0  0  0
    1.9459    3.6626    5.4901 H   0  0  0  0  0  0  0  0  0  0  0  0
    5.5708    2.4015   -3.3456 H   0  0  0  0  0  0  0  0  0  0  0  0
    3.4671   -0.2884    6.1882 H   0  0  0  0  0  0  0  0  0  0  0  0
    1.3799    3.0477    3.1634 H   0  0  0  0  0  0  0  0  0  0  0  0
    3.5434    2.4156   -1.9317 H   0  0  0  0  0  0  0  0  0  0  0  0
    4.2815   -2.3955    0.7331 H   0  0  0  0  0  0  0  0  0  0  0  0
    7.4634   -3.3414    3.4789 H   0  0  0  0  0  0  0  0  0  0  0  0
    7.7860    1.9361   -2.3434 H   0  0  0  0  0  0  0  0  0  0  0  0
    5.9186   -2.2343   -1.1063 H   0  0  0  0  0  0  0  0  0  0  0  0
    9.0978   -3.1796    1.6375 H   0  0  0  0  0  0  0  0  0  0  0  0
    3.5356   -0.1983   -0.7682 H   0  0  0  0  0  0  0  0  0  0  0  0
    1.8294    0.2939   -0.6897 H   0  0  0  0  0  0  0  0  0  0  0  0
    2.3666   -1.1833    0.1388 H   0  0  0  0  0  0  0  0  0  0  0  0
    8.8322   -2.2491   -2.8796 H   0  0  0  0  0  0  0  0  0  0  0  0
    7.4976   -1.3221   -2.1262 H   0  0  0  0  0  0  0  0  0  0  0  0
    7.2992   -3.0611   -2.4679 H   0  0  0  0  0  0  0  0  0  0  0  0
   10.2607    1.2275   -0.1579 H   0  0  0  0  0  0  0  0  0  0  0  0
    9.4146    2.4239   -1.1878 H   0  0  0  0  0  0  0  0  0  0  0  0
    9.1918    0.6780   -1.4750 H   0  0  0  0  0  0  0  0  0  0  0  0
    3.8898   -3.5505    3.0317 H   0  0  0  0  0  0  0  0  0  0  0  0
    5.2004   -3.4939    4.2111 H   0  0  0  0  0  0  0  0  0  0  0  0
    1.2566   -0.3057    1.8939 H   0  0  0  0  0  0  0  0  0  0  0  0
    1.0596    1.4054    1.5126 H   0  0  0  0  0  0  0  0  0  0  0  0
    3.5326    2.5230    1.6519 H   0  0  0  0  0  0  0  0  0  0  0  0
    2.5449    2.4566    0.1918 H   0  0  0  0  0  0  0  0  0  0  0  0
    5.0324   -1.0177    4.0812 H   0  0  0  0  0  0  0  0  0  0  0  0
    6.5816    0.0051    3.0971 H   0  0  0  0  0  0  0  0  0  0  0  0
  1  2  2  0  0  0  0
  1  4  1  0  0  0  0
  2  5  1  0  0  0  0
  3  6  1  0  0  0  0
  3  9  2  0  0  0  0
  4 12  2  0  0  0  0
  5 15  2  0  0  0  0
  6 16  2  0  0  0  0
  7 10  1  0  0  0  0
  7 14  2  0  0  0  0
  8 11  2  0  0  0  0
  8 14  1  0  0  0  0
  9 18  1  0  0  0  0
 10 17  2  0  0  0  0
 11 17  1  0  0  0  0
 12 15  1  0  0  0  0
 12 19  1  0  0  0  0
 13 16  1  0  0  0  0
 13 18  2  0  0  0  0
 13 20  1  0  0  0  0
 14 24  1  0  0  0  0
 15 25  1  0  0  0  0
 16 26  1  0  0  0  0
 17 32  1  0  0  0  0
 18 33  1  0  0  0  0
 19 27  1  0  0  0  0
 19 29  2  0  0  0  0
 20 30  2  0  0  0  0
 20 31  1  0  0  0  0
 21 28  1  0  0  0  0
 22 32  1  0  0  0  0
 23 33  1  0  0  0  0
 24 27  1  0  0  0  0
 25 28  1  0  0  0  0
 26 28  1  0  0  0  0
  1 34  1  0  0  0  0
  2 35  1  0  0  0  0
  3 36  1  0  0  0  0
  4 37  1  0  0  0  0
  5 38  1  0  0  0  0
  6 39  1  0  0  0  0
  7 40  1  0  0  0  0
  8 41  1  0  0  0  0
  9 42  1  0  0  0  0
 10 43  1  0  0  0  0
 11 44  1  0  0  0  0
 21 45  1  0  0  0  0
 21 46  1  0  0  0  0
 21 47  1  0  0  0  0
 22 48  1  0  0  0  0
 22 49  1  0  0  0  0
 22 50  1  0  0  0  0
 23 51  1  0  0  0  0
 23 52  1  0  0  0  0
 23 53  1  0  0  0  0
 24 54  1  0  0  0  0
 24 55  1  0  0  0  0
 25 56  1  0  0  0  0
 25 57  1  0  0  0  0
 26 58  1  0  0  0  0
 26 59  1  0  0  0  0
 27 60  1  0  0  0  0
 31 61  1  0  0  0  0
M  END
$$$$
